
**** 12/07/23 08:49:20 ******* PSpice Lite (March 2016) ******* ID# 10813 ****

 ** Profile: "SCHEMATIC1-cdj"  [ C:\Users\alena\AppData\Roaming\SPB_Data\full wave-PSpiceFiles\SCHEMATIC1\cdj.sim ] 


 ****     CIRCUIT DESCRIPTION


******************************************************************************




** Creating circuit file "cdj.cir" 
** WARNING: THIS AUTOMATICALLY GENERATED FILE MAY BE OVERWRITTEN BY SUBSEQUENT SIMULATIONS

*Libraries: 
* Profile Libraries :
* Local Libraries :
* From [PSPICE NETLIST] section of C:\Users\alena\AppData\Roaming\SPB_Data\cdssetup\OrCAD_PSpice\17.2.0\PSpice.ini file:
.lib "nomd.lib" 

*Analysis directives: 
.TRAN  0 0.08 0.8 10000 
.OPTIONS ADVCONV
.PROBE64 V(alias(*)) I(alias(*)) W(alias(*)) D(alias(*)) NOISE(alias(*)) 
.INC "..\SCHEMATIC1.net" 



**** INCLUDING SCHEMATIC1.net ****
* source FULL WAVE
V_V1         N00197 N00185  AC 0
+SIN 0 230 50 0 0 0
R_R1         0 N00166  2  
D_D1         N00197 N00166 D1N4007 
D_D2         0 N00197 D1N4007 
D_D3         N00185 N00166 D1N4007 
D_D4         0 N00185 D1N4007 

**** RESUMING cdj.cir ****
.END

**** 12/07/23 08:49:20 ******* PSpice Lite (March 2016) ******* ID# 10813 ****

 ** Profile: "SCHEMATIC1-cdj"  [ C:\Users\alena\AppData\Roaming\SPB_Data\full wave-PSpiceFiles\SCHEMATIC1\cdj.sim ] 


 ****     Diode MODEL PARAMETERS


******************************************************************************




               D1N4007         D1N4001         
          IS   14.110000E-09   14.110000E-09 
           N    1.984           1.984        
         IKF   94.81           94.81         
          BV    1.500000E+03   75            
         IBV   10.000000E-06   10.000000E-06 
          RS     .03389          .03389      
          TT    5.700000E-06    5.700000E-06 
         CJO   25.890000E-12   25.890000E-12 
          VJ     .3245           .3245       
           M     .44             .44         


ERROR(ORPSIM-15413): Transient Stop time 0.08 s is less than Print Start time 0.8 s.


ABORTING SIMULATION
**** 12/07/23 08:49:20 ******* PSpice Lite (March 2016) ******* ID# 10813 ****

 ** Profile: "SCHEMATIC1-cdj"  [ C:\Users\alena\AppData\Roaming\SPB_Data\full wave-PSpiceFiles\SCHEMATIC1\cdj.sim ] 


 ****     JOB STATISTICS SUMMARY


******************************************************************************



Node counts:
  Top level (NUNODS)                =           4
  External (NCNODS)                 =           4
  Total (NUMNOD)                    =           8

Total device count (NUMEL)          =           6
  Diodes (D)                        =           4
  Resistors (R)                     =           1
  Voltage Sources (V)               =           1

Number of subcircuits (X)           =           0

Matrix statistics:
  Matrix size (NSTOP)               =           9
  Initial no. elements (NTTAR)      =          23
  No. elements w/ fillin (NTTBR)    =          23
  No. fillins (IFILL)               =           0
  No. overflows (NTTOV)             =           0
  No. LU operations (IOPS)          =           0
  Percent sparsity (PERSPA)         =      71.605

Analysis statistics:
  No. total time points (NUMTTP)    =           0
  No. rejected time points (NUMRTP) =           0
  No. iterations (NUMNIT)           =           0

Load Threads                        =           1

Runtime statistics:                       Seconds      Iterations
  Matrix load                       =        0.00
  Matrix solution                   =        0.00               1
  Readin                            =        0.00
  General setup                     =         .03
  CMI setup                     =        0.00
  Setup                             =        0.00
  DC sweep                          =        0.00               0
  Bias point                        =        0.00               0
  AC and noise                      =        0.00               0
  Total transient analysis          =        0.00
  Output                            =        0.00
  Overhead                          =        0.00
  Total job time (using Solver 1)   =         .03
