
**** 12/07/23 01:20:03 ******* PSpice Lite (March 2016) ******* ID# 10813 ****

 ** Profile: "SCHEMATIC1-sdc"  [ C:\Users\alena\AppData\Roaming\SPB_Data\half and full wave-PSpiceFiles\SCHEMATIC1\sdc.sim ] 


 ****     CIRCUIT DESCRIPTION


******************************************************************************




** Creating circuit file "sdc.cir" 
** WARNING: THIS AUTOMATICALLY GENERATED FILE MAY BE OVERWRITTEN BY SUBSEQUENT SIMULATIONS

*Libraries: 
* Profile Libraries :
* Local Libraries :
* From [PSPICE NETLIST] section of C:\Users\alena\AppData\Roaming\SPB_Data\cdssetup\OrCAD_PSpice\17.2.0\PSpice.ini file:
.lib "nomd.lib" 

*Analysis directives: 
.TRAN  0 0.8 0.8 1000 
.OPTIONS ADVCONV
.PROBE64 V(alias(*)) I(alias(*)) W(alias(*)) D(alias(*)) NOISE(alias(*)) 
.INC "..\SCHEMATIC1.net" 



**** INCLUDING SCHEMATIC1.net ****
* source HALF AND FULL WAVE
R_R1         0 N00117  1k  
D_D1         N00110 N00117 D1N4007 
V_V1         N00110 0  AC 0
+SIN 0 230 50 0 0 0

**** RESUMING sdc.cir ****
.END

**** 12/07/23 01:20:03 ******* PSpice Lite (March 2016) ******* ID# 10813 ****

 ** Profile: "SCHEMATIC1-sdc"  [ C:\Users\alena\AppData\Roaming\SPB_Data\half and full wave-PSpiceFiles\SCHEMATIC1\sdc.sim ] 


 ****     Diode MODEL PARAMETERS


******************************************************************************




               D1N4007         D1N4001         
          IS   14.110000E-09   14.110000E-09 
           N    1.984           1.984        
         IKF   94.81           94.81         
          BV    1.500000E+03   75            
         IBV   10.000000E-06   10.000000E-06 
          RS     .03389          .03389      
          TT    5.700000E-06    5.700000E-06 
         CJO   25.890000E-12   25.890000E-12 
          VJ     .3245           .3245       
           M     .44             .44         


**** 12/07/23 01:20:03 ******* PSpice Lite (March 2016) ******* ID# 10813 ****

 ** Profile: "SCHEMATIC1-sdc"  [ C:\Users\alena\AppData\Roaming\SPB_Data\half and full wave-PSpiceFiles\SCHEMATIC1\sdc.sim ] 


 ****     INITIAL TRANSIENT SOLUTION       TEMPERATURE =   27.000 DEG C


******************************************************************************



 NODE   VOLTAGE     NODE   VOLTAGE     NODE   VOLTAGE     NODE   VOLTAGE


(N00110)    0.0000 (N00117)-24.23E-21 




    VOLTAGE SOURCE CURRENTS
    NAME         CURRENT

    V_V1         2.423E-23

    TOTAL POWER DISSIPATION   0.00E+00  WATTS



          JOB CONCLUDED

**** 12/07/23 01:20:03 ******* PSpice Lite (March 2016) ******* ID# 10813 ****

 ** Profile: "SCHEMATIC1-sdc"  [ C:\Users\alena\AppData\Roaming\SPB_Data\half and full wave-PSpiceFiles\SCHEMATIC1\sdc.sim ] 


 ****     JOB STATISTICS SUMMARY


******************************************************************************



  Total job time (using Solver 1)   =         .03
