
**** 12/07/23 00:10:22 ******* PSpice Lite (March 2016) ******* ID# 10813 ****

 ** Profile: "SCHEMATIC1-sfjbvh"  [ C:\Users\alena\AppData\Roaming\SPB_Data\sjdbf-PSpiceFiles\SCHEMATIC1\sfjbvh.sim ] 


 ****     CIRCUIT DESCRIPTION


******************************************************************************




** Creating circuit file "sfjbvh.cir" 
** WARNING: THIS AUTOMATICALLY GENERATED FILE MAY BE OVERWRITTEN BY SUBSEQUENT SIMULATIONS

*Libraries: 
* Profile Libraries :
* Local Libraries :
* From [PSPICE NETLIST] section of C:\Users\alena\AppData\Roaming\SPB_Data\cdssetup\OrCAD_PSpice\17.2.0\PSpice.ini file:
.lib "nomd.lib" 

*Analysis directives: 
.TRAN  0 1000ns  0 100 
.OPTIONS ADVCONV
.PROBE64 V(alias(*)) I(alias(*)) W(alias(*)) D(alias(*)) NOISE(alias(*)) 
.INC "..\SCHEMATIC1.net" 



**** INCLUDING SCHEMATIC1.net ****
* source SJDBF
U_DSTM1         STIM(1,1) $G_DPWR $G_DGND N00404 IO_STM IO_LEVEL=0 
+ 0 0
+ +4ms 1
+REPEAT FOREVER
+ +4ms 0
+  +4ms 1
+ ENDREPEAT
U_DSTM2         STIM(1,1) $G_DPWR $G_DGND N00411 IO_STM IO_LEVEL=0 
+ 0 0
+ +2ms 1
+REPEAT FOREVER
+ +2ms 0
+  +2ms 1
+ ENDREPEAT
U_DSTM3         STIM(1,1) $G_DPWR $G_DGND N00440 IO_STM IO_LEVEL=0 
+ 0 0
+ +1ms 1
+REPEAT FOREVER
+ +1ms 0
+  +1ms 1
+ ENDREPEAT
X_U1A         N00404 N00411 N00422 $G_DPWR $G_DGND 7486 PARAMS:
+ IO_LEVEL=0 MNTYMXDLY=0
X_U1B         N00422 N00440 M_UN0001 $G_DPWR $G_DGND 7486 PARAMS:
+ IO_LEVEL=0 MNTYMXDLY=0
X_U2A         N00404 N00411 N00496 $G_DPWR $G_DGND 7408 PARAMS:
+ IO_LEVEL=0 MNTYMXDLY=0
X_U2B         N00422 N00440 N00503 $G_DPWR $G_DGND 7408 PARAMS:
+ IO_LEVEL=0 MNTYMXDLY=0
X_U3A         N00496 N00503 N00510 $G_DPWR $G_DGND 7432 PARAMS:
+ IO_LEVEL=0 MNTYMXDLY=0

**** RESUMING sfjbvh.cir ****
.END

**** 12/07/23 00:10:22 ******* PSpice Lite (March 2016) ******* ID# 10813 ****

 ** Profile: "SCHEMATIC1-sfjbvh"  [ C:\Users\alena\AppData\Roaming\SPB_Data\sjdbf-PSpiceFiles\SCHEMATIC1\sfjbvh.sim ] 


 ****     Digital Gate MODEL PARAMETERS


******************************************************************************




               D0_GATE         D_86_1          D_86_2          D_86_3          
      TPLHMN    0               3.600000E-09    4.800000E-09    2.400000E-09 
      TPLHTY    0               9.000000E-09   12.000000E-09    6.000000E-09 
      TPLHMX    0              17.000000E-09   24.000000E-09    6.000000E-09 
      TPHLMN    0               2.000000E-09    2.800000E-09    2.400000E-09 
      TPHLTY    0               5.000000E-09    7.000000E-09    6.000000E-09 
      TPHLMX    0              11.000000E-09   16.000000E-09    6.000000E-09 


               D_08            D_32            
      TPLHMN    7.000000E-09    4.000000E-09 
      TPLHTY   17.500000E-09   10.000000E-09 
      TPLHMX   27.000000E-09   15.000000E-09 
      TPHLMN    4.800000E-09    5.600000E-09 
      TPHLTY   12.000000E-09   14.000000E-09 
      TPHLMX   19.000000E-09   22.000000E-09 


**** 12/07/23 00:10:22 ******* PSpice Lite (March 2016) ******* ID# 10813 ****

 ** Profile: "SCHEMATIC1-sfjbvh"  [ C:\Users\alena\AppData\Roaming\SPB_Data\sjdbf-PSpiceFiles\SCHEMATIC1\sfjbvh.sim ] 


 ****     Digital IO  MODEL PARAMETERS


******************************************************************************




               IO_STM          IO_STD          
        DRVL    0             104            
        DRVH    0              96.4          
       AtoD1                 AtoD_STD        
       AtoD2                 AtoD_STD_NX     
       AtoD3                 AtoD_STD        
       AtoD4                 AtoD_STD_NX     
       DtoA1 DtoA_STM        DtoA_STD        
       DtoA2 DtoA_STM        DtoA_STD        
       DtoA3 DtoA_STM        DtoA_STD        
       DtoA4 DtoA_STM        DtoA_STD        
      TSWHL1                    1.511000E-09 
      TSWHL2                    1.487000E-09 
      TSWHL3                    1.511000E-09 
      TSWHL4                    1.487000E-09 
      TSWLH1                    3.517000E-09 
      TSWLH2                    3.564000E-09 
      TSWLH3                    3.517000E-09 
      TSWLH4                    3.564000E-09 
       TPWRT  100.000000E+03  100.000000E+03 



          JOB CONCLUDED

**** 12/07/23 00:10:22 ******* PSpice Lite (March 2016) ******* ID# 10813 ****

 ** Profile: "SCHEMATIC1-sfjbvh"  [ C:\Users\alena\AppData\Roaming\SPB_Data\sjdbf-PSpiceFiles\SCHEMATIC1\sfjbvh.sim ] 


 ****     JOB STATISTICS SUMMARY


******************************************************************************



  Total job time                    =         .05
