
**** 12/07/23 08:37:49 ******* PSpice Lite (March 2016) ******* ID# 10813 ****

 ** Profile: "SCHEMATIC1-MKJ"  [ C:\Users\alena\AppData\Roaming\SPB_Data\rlc-PSpiceFiles\SCHEMATIC1\MKJ.sim ] 


 ****     CIRCUIT DESCRIPTION


******************************************************************************




** Creating circuit file "MKJ.cir" 
** WARNING: THIS AUTOMATICALLY GENERATED FILE MAY BE OVERWRITTEN BY SUBSEQUENT SIMULATIONS

*Libraries: 
* Profile Libraries :
* Local Libraries :
* From [PSPICE NETLIST] section of C:\Users\alena\AppData\Roaming\SPB_Data\cdssetup\OrCAD_PSpice\17.2.0\PSpice.ini file:
.lib "nomd.lib" 

*Analysis directives: 
.AC DEC 10000 110k 100k
-------------------$
ERROR(ORPSIM-16103): Invalid value
.OP
.OPTIONS ADVCONV
.PROBE64 V(alias(*)) I(alias(*)) W(alias(*)) D(alias(*)) NOISE(alias(*)) 
.INC "..\SCHEMATIC1.net" 



**** INCLUDING SCHEMATIC1.net ****
* source RLC
R_R1         N00137 N00144  1k  
C_C1         N00148 0  .056uF  
L_L1         N00144 N00148  50mH  
V_V1         N00137 0 DC 0Vdc AC 400 

**** RESUMING MKJ.cir ****
.END
